80
0
Cd	10.50392047	-2.36023432	4.70944385
Cd	-11.28007626	1.08991846	0.8020722
Cd	-9.98117049	-0.26195363	7.85184794
Cd	-7.65093913	1.27292012	-4.98009125
Cd	-6.84965702	8.66588571	0.7732342
Cd	-8.40926356	4.96367641	6.80760716
Cd	11.00968249	1.56712355	0.79347001
Cd	-3.61706928	10.52943828	4.73392451
Cd	5.00714313	-8.64979969	7.85690731
Cd	-8.40709913	-4.49298701	-0.74371198
Cd	-7.59374355	-8.40017467	4.70382073
Cd	-2.65347682	-2.42338737	-6.350171
Cd	-4.21273412	2.34701421	0.26766756
Cd	-4.13056078	-2.5635228	6.52163988
Cd	-4.14457913	1.58128836	11.29080248
Cd	-0.80579248	3.50554682	-6.32048938
Cd	0.27595588	9.47375299	-0.5162139
Cd	-0.01884334	4.6424256	6.56002621
Cd	8.11074032	-5.00731298	-0.78928583
Cd	4.72275765	8.66041689	7.87777107
Cd	-4.18935621	-10.4199007	0.78361062
Cd	2.71771916	-7.32309672	-5.05809565
Cd	0.02548609	-4.74616342	0.04581601
Cd	-0.26209193	-9.69895277	6.823161
Cd	1.03208307	-3.92009621	11.55980923
Cd	3.43200744	-1.05710996	-6.30192929
Cd	3.99294418	2.56170437	0.16801061
Cd	4.15249469	-2.51708283	6.14523073
Cd	3.38852272	2.34043315	11.55505967
Cd	4.92180572	6.07500145	-5.00704635
Cd	6.59305456	8.92219843	0.80814868
Cd	8.39502173	4.71758941	6.82785772
Cd	4.43836577	-10.2418388	0.8004418
Se	-11.30652455	-1.47017731	-3.27150711
Se	-12.65188343	2.73829328	4.97631735
Se	-8.30447279	4.66193144	-1.42428183
Se	-8.25086994	9.60485472	5.43658005
Se	-3.65840166	12.20771983	-0.05446936
Se	-8.85045859	2.84935212	11.32092129
Se	-8.82140861	-9.24240814	-0.13647822
Se	-8.6427153	-3.70761704	4.64913335
Se	-4.55793525	1.51016971	-8.63376466
Se	-3.9541381	-2.33684097	-1.66819608
Se	-4.19850798	2.35649145	5.11927917
Se	-3.77460319	-3.24454945	11.37342175
Se	6.71784916	6.02955889	11.34983524
Se	-0.2235654	4.58786419	-1.62879811
Se	1.00767479	9.21967293	4.7185087
Se	-0.72661552	4.97338029	11.41398199
Se	4.30583159	10.49852182	-3.13366435
Se	-4.40426831	-11.89096733	5.48033644
Se	0.9780745	-4.64791058	-8.63569599
Se	-0.06918429	-9.48922256	-1.5458165
Se	-0.08876909	-4.87207458	4.89307918
Se	3.5505599	3.20797989	-8.5960442
Se	4.01303769	-2.13049559	-1.61281274
Se	4.13490025	2.3192815	4.97793201
Se	5.40465898	-1.99184677	10.83468484
Se	8.19919012	4.70785992	-1.531763
Se	8.64793971	9.46516447	5.0011854
Se	3.66172226	-12.39303954	4.91925796
Se	1.73956832	-8.85217597	11.32555013
Se	6.84492416	-9.06398946	-3.22878345
Se	7.40523202	-6.00064804	4.46619097
Se	12.37863596	-2.99383689	-0.04672808
Se	12.22206732	2.02927757	5.54766972
P	0.17970382	0.49730281	17.53802664
O	1.37641557	-0.41214854	15.09741006
C	-3.22420223	0.62528527	17.41557984
C	0.96432331	-1.54829529	20.14343169
C	1.22404879	3.63221356	18.33909031
H	-3.95405359	-1.17053847	16.59706401
H	-3.80091594	2.2204636	16.16363556
H	-4.04164706	0.94000553	19.32587149
H	0.13997464	-0.84547812	21.9425258
H	3.05421526	-1.6490419	20.31300543
H	0.2259133	-3.47222337	19.73979271
H	3.31227474	3.62822144	18.5631617
H	0.70916105	4.90313814	16.73900304
H	0.32292079	4.31429681	20.10942685

