80
0
Cd	9.96397356	-0.25479603	7.61488279
Cd	-10.99982013	1.55558139	0.76295832
Cd	-11.03368322	-2.33135147	4.69566115
Cd	-4.95538419	6.02992325	-4.97470062
Cd	-6.57819226	9.15054635	0.8109358
Cd	-8.39229799	4.72769707	6.58018199
Cd	11.27587248	1.55411608	0.77764289
Cd	-4.75238595	8.67050398	7.84965198
Cd	7.399511	-8.40420611	4.62406762
Cd	-7.96780726	-5.01741031	-0.65187007
Cd	-5.24753321	-8.66435772	7.61621635
Cd	-3.4270857	-1.08592153	-6.56027886
Cd	-3.94265072	2.35494337	0.21200785
Cd	-4.19490959	-2.3728548	6.5510344
Cd	-3.42630015	2.59928613	11.29143706
Cd	0.84919405	3.37358726	-6.34272479
Cd	-0.26342817	9.45398554	-0.76747018
Cd	0.21602208	4.72022786	6.54526489
Cd	8.41870835	-4.49619034	-0.70821973
Cd	3.43493573	10.51993554	4.70747404
Cd	-4.41911846	-10.51068163	0.79873425
Cd	-2.89061113	-7.36335828	-4.98149801
Cd	-0.03609904	-4.76369044	0.17059541
Cd	0.02659578	-9.9777288	6.79857407
Cd	-0.74209737	-4.45539646	11.32700288
Cd	2.62443362	-2.61582142	-6.55208102
Cd	4.19877324	2.11437357	0.19985167
Cd	3.94764171	-2.60995571	6.55733798
Cd	3.94773222	1.56675593	11.29294028
Cd	7.84312998	1.05669019	-4.97938778
Cd	6.85765151	8.79766018	0.75122277
Cd	8.40759481	4.96943808	6.66727247
Cd	4.13097715	-10.45222715	0.74838937
Se	-12.32922533	-3.00635386	-0.15662126
Se	-12.39613934	2.20290663	5.44480572
Se	-8.06657388	4.73289382	-1.34187468
Se	-8.70473021	9.53871173	4.97286668
Se	-4.3519068	10.52646625	-3.22189933
Se	-6.90268942	6.03476621	11.20484343
Se	-6.96238612	-9.1610096	-3.0693571
Se	-7.51138063	-5.60012991	4.59700747
Se	-3.5189072	3.28745045	-8.60387014
Se	-3.94348047	-2.20133787	-1.79136029
Se	-4.04536103	2.33563945	5.06116313
Se	-4.88665235	-1.96050842	11.41946319
Se	8.69194981	2.75677758	11.14422816
Se	0.21891699	4.50875458	-1.64166552
Se	-1.14592659	9.150049	4.59889788
Se	0.71878282	5.08909389	11.43479103
Se	3.5746116	12.25985572	-0.0743772
Se	-3.93186629	-12.60496167	4.96475653
Se	-1.09854702	-4.8862092	-8.63142161
Se	-0.00698894	-9.50071206	-1.49021558
Se	-0.10941123	-4.97400874	5.02600338
Se	4.68588595	1.3635641	-8.5485473
Se	3.91752572	-2.49915759	-1.80018676
Se	4.2126271	2.25820081	5.04435148
Se	3.90456243	-3.27631823	11.4377906
Se	8.11457707	4.73558837	-1.5259804
Se	8.08222519	9.65263993	5.45698497
Se	4.26605275	-11.9410522	5.45347348
Se	-2.08655382	-9.14658769	11.21635674
Se	8.75380995	-9.28306329	-0.17148615
Se	8.42755836	-3.7164117	4.56236452
Se	11.47345521	-1.44296644	-3.01562153
Se	12.74617761	2.89182963	5.01679625
P	0.06160336	-0.03662264	-14.37633803
O	0.07274666	-0.17586524	-11.53965764
C	3.19912381	0.17409416	-15.69473866
C	-1.38957219	-2.76508495	-15.81747378
C	-1.64126701	2.67616485	-15.54368533
H	4.16955004	1.83144683	-14.84328368
H	3.15260826	0.37436468	-17.78473058
H	4.27017624	-1.5570535	-15.1802912
H	-3.3898433	-2.88081508	-15.18947971
H	-0.38373187	-4.48543809	-15.15366453
H	-1.31738409	-2.66827737	-17.91413184
H	-1.69780982	2.71849572	-17.6425678
H	-3.59752	2.61606208	-14.78035818
H	-0.70756962	4.41647219	-14.83019365

