76 

Cd    5.7178274369337974E+00   -1.0302833620017064E+00    2.1337498742105581E+00
Cd   -5.4455938295138973E+00    8.7337524974010561E-01    3.5672987521623523E-01
Cd   -5.0120437699087894E+00   -1.0257825296873782E-01    3.8108021824450158E+00
Cd   -3.7785978876947213E+00    4.7504073052220169E-01   -2.2770620094757197E+00
Cd   -3.3737577913935373E+00    4.3773049716981740E+00    4.4518222850288580E-01
Cd   -4.0386291024254968E+00    2.4169405799266497E+00    3.3979214112573803E+00
Cd    6.0405095222486338E+00    1.0458824520482013E+00    3.0633917064152349E-01
Cd   -1.7222104274039918E+00    5.4701216140086935E+00    2.2454700950027942E+00
Cd    2.8566664957045149E+00   -4.3045458865025275E+00    3.7393640629453859E+00
Cd   -4.0358924763667146E+00   -2.1823022799036869E+00    3.4157958832800463E-02
Cd   -3.6379125877469050E+00   -4.2706372500519816E+00    2.3370575477078894E+00
Cd   -1.1905444104377376E+00   -1.2400479874947694E+00   -3.0520923860799347E+00
Cd   -1.9489603689966444E+00    1.1126699554033834E+00    1.6501064051062214E-01
Cd   -1.8050045641786658E+00   -1.2081023713331667E+00    3.4257658083492233E+00
Cd   -1.9798106146444505E+00    7.3974344980362772E-01    5.8039556511817523E+00
Cd   -3.7494795582558199E-01    1.7527324510761064E+00   -3.0689838429539424E+00
Cd    2.5215491844840299E-01    4.6992122368418840E+00   -8.9680311919405412E-02
Cd   -1.0332955471364244E-02    2.3544264388235709E+00    3.3875982784320615E+00
Cd    4.1143744112334835E+00   -2.3903635432157460E+00   -6.9375607529864630E-02
Cd    2.5418469314377492E+00    4.5783454161152211E+00    3.7212439171920146E+00
Cd   -1.9041977412474760E+00   -5.1547913960725174E+00    4.9644192943529786E-01
Cd    1.6268549546308175E+00   -3.5225041034091049E+00   -2.2949796547815651E+00
Cd    1.7795580105348552E-01   -2.2812496182222382E+00    1.6045483931481286E-01
Cd    1.7914891634235286E-01   -4.7351598113697300E+00    3.3937686353864058E+00
Cd    6.3757153787757859E-01   -2.1046982766520781E+00    5.7959166283212324E+00
Cd    1.7968852509440174E+00   -4.4057524394710368E-01   -3.0895939166200432E+00
Cd    2.0377109687621160E+00    1.2335280796750649E+00    1.3587852693164859E-01
Cd    2.1760072515965723E+00   -9.9806246260292941E-01    3.3935442991617513E+00
Cd    1.7791300855657943E+00    1.5810166057557080E+00    5.7625924333212577E+00
Cd    2.5112442751696697E+00    3.1158093108180140E+00   -2.3621492649292430E+00
Cd    3.5714129799146228E+00    4.3414248547318417E+00    1.8969906884023996E-01
Cd    4.2053533880726679E+00    2.4430835301301714E+00    3.3202954281547279E+00
Cd    2.1646600788599777E+00   -5.1618243078209192E+00    3.1049859377818922E-01
Se   -5.5413027050134458E+00   -8.2781022597510046E-01   -1.3157103868154814E+00
Se   -6.1942738625942448E+00    1.4541491059181788E+00    2.4665515335934272E+00
Se   -3.9013841660986279E+00    2.3936325390483639E+00   -7.5461445014791484E-01
Se   -3.9160109123487321E+00    4.7352715885380920E+00    2.7463633571760551E+00
Se   -1.7581129927661263E+00    6.0366831758387516E+00   -1.0882709327604240E-01
Se   -4.2922825930788200E+00    1.3127993231897990E+00    5.5802017199275991E+00
Se   -4.1639813063420235E+00   -4.5922369169385719E+00   -5.8578341570746303E-03
Se   -4.0225145488626239E+00   -1.9398494404695870E+00    2.5861966029934482E+00
Se   -2.2397021349709023E+00    6.4489005429383273E-01   -4.0894128394080509E+00
Se   -1.8353201898378939E+00   -1.2226904327758670E+00   -7.1847375875731712E-01
Se   -1.9497153359814630E+00    1.1518727499800501E+00    2.5418196531507875E+00
Se   -1.6828286708382281E+00   -1.6050724100333127E+00    5.8204854154368535E+00
Se    3.4382980219022987E+00    3.2988323951207028E+00    5.4941718597980849E+00
Se   -4.2663029009127489E-02    2.3018833889469348E+00   -7.4454674806900356E-01
Se    4.8251951143284316E-01    4.6177052509737440E+00    2.4807107544312759E+00
Se   -3.9469694740898220E-01    2.5085328540376892E+00    5.7822135316191421E+00
Se    2.1612303142504663E+00    5.3119527610420540E+00   -1.4651600938263540E+00
Se   -1.8951029205267458E+00   -5.8061721397376038E+00    2.7970449127325083E+00
Se    6.7638875027700573E-01   -2.2973123338663965E+00   -4.1078226713847252E+00
Se    4.1354299969559118E-02   -4.6059150863104215E+00   -7.5901359152761572E-01
Se    1.8457037763897041E-01   -2.2915751652193204E+00    2.5377269068668320E+00
Se    1.7657268037998293E+00    1.7063671126566200E+00   -4.1400721626173027E+00
Se    2.1210941162978201E+00   -1.0255319401051273E+00   -7.6269421539728399E-01
Se    2.0841069880937195E+00    1.2679059787374785E+00    2.5127088833875639E+00
Se    2.5188024786202545E+00   -6.7269883589176982E-01    5.7814388681785553E+00
Se    4.1020579219819036E+00    2.1883620815872460E+00   -7.8215635873704192E-01
Se    4.4568269510605436E+00    4.7813889913718102E+00    2.2979123939856096E+00
Se    2.0752328152942727E+00   -6.1114136734863189E+00    2.4185653765766850E+00
Se    1.3112217093135221E+00   -4.3874043184391809E+00    5.5472712955921226E+00
Se    3.6584949772096844E+00   -4.3937299159585361E+00   -1.3845241859391839E+00
Se    3.9028519026880164E+00   -2.5170245846326154E+00    2.4901820636271781E+00
Se    6.2754043960181765E+00   -1.3216717126618471E+00   -1.6448485222878159E-01
Se    6.1698298388673027E+00    1.1753319433617229E+00    2.8112272250917942E+00
P    8.1824179731538571E+00    3.3337105573973300E+00    4.2142319994820526E-01
C    9.5868875635691051E+00    3.9074933979686737E+00   -5.0699881410103187E-01
O    7.5024903710816089E+00    2.1632473253598423E+00   -2.5402154964534773E-01
O    8.7443557891865158E+00    3.0231446486829512E+00    1.8808252326066581E+00
O    7.2481911483397479E+00    4.6113446276012393E+00    5.1624422410977888E-01
H    8.1349051150461413E+00    2.4007629387768619E+00    2.3723836906157043E+00
H    6.5240935020591513E+00    4.5910982831675575E+00    1.1999173511570440E+00
H    1.0090632817291919E+01    4.7163478054052481E+00    3.5352305402698070E-02
H    1.0280772894337288E+01    3.0717987035543026E+00   -6.5848599928388307E-01
H    9.2452019140889430E+00    4.2760298349116717E+00   -1.4821130728949836E+00
